#
data_2310665
_chemical_formula_sum            'U Co Ge'
_chemical_name_systematic        'U Co Ge'
_space_group_IT_number           62
_symmetry_space_group_name_Hall  '-P 2c 2n'
_symmetry_space_group_name_H-M   'P n a m'
_cell_angle_alpha                90
_cell_angle_beta                 90
_cell_angle_gamma                90
_cell_formula_units_Z            4
_cell_length_a                   6.8472
_cell_length_b                   7.2296
_cell_length_c                   4.2109
_cell_volume                     208.45015
loop_
_symmetry_equiv_pos_as_xyz
x,y,z
-x+1/2,y+1/2,-z
x+1/2,-y+1/2,-z+1/2
-x,-y,z+1/2
-x,-y,-z
x-1/2,-y-1/2,z
-x-1/2,y-1/2,z-1/2
x,y,-z-1/2
loop_
_atom_site_label
_atom_site_type_symbol
_atom_site_fract_x
_atom_site_fract_y
_atom_site_fract_z
_atom_site_occupancy
_atom_site_U_iso_or_equiv
Co1 Co 0.2891 0.4181 0.25 1 0.0
U1 U 0.009 0.707 0.25 1 0.0
Ge1 Ge 0.196 0.087 0.25 1 0.0
